@<TRIPOS>MOLECULE
*****
 25 26 0 0 0
SMALL
GASTEIGER

@<TRIPOS>ATOM
      1 H          30.2779  -23.1272  -11.2238 H       1  UNL1        0.0527
      2 H          28.5592  -23.1331  -10.8293 H       1  UNL1        0.0527
      3 H          28.3183  -22.2219   -3.4665 H       1  UNL1        0.0626
      4 H          23.6922  -19.4895   -6.4262 H       1  UNL1        0.0527
      5 C          29.5330  -23.4630  -10.5330 C.3     1  UNL1        0.0627
      6 N          29.8210  -22.9060   -9.2220 N.ar    1  UNL1       -0.2496
      7 O          28.5330  -23.1090   -5.2780 O.3     1  UNL1       -0.3674
      8 C          29.7820  -22.3070   -7.1490 C.ar    1  UNL1        0.1083
      9 N          30.8840  -22.0870   -9.0350 N.ar    1  UNL1       -0.0653
     10 C          29.1050  -23.0640   -8.0540 C.ar    1  UNL1        0.0510
     11 N          30.8660  -21.7110   -7.7920 N.ar    1  UNL1       -0.1322
     12 C          29.4180  -22.0790   -5.7160 C.3     1  UNL1        0.0934
     13 N          26.6650  -20.4440   -4.3640 N.ar    1  UNL1       -0.1322
     14 C          25.4540  -22.0910   -5.2850 C.ar    1  UNL1        0.0510
     15 N          25.6060  -19.8800   -4.8510 N.ar    1  UNL1       -0.0653
     16 C          26.6060  -21.8140   -4.6060 C.ar    1  UNL1        0.1083
     17 N          24.8570  -20.8540   -5.4200 N.ar    1  UNL1       -0.2496
     18 C          23.6150  -20.5010   -6.0860 C.3     1  UNL1        0.0627
     19 C          27.7100  -22.7360   -4.1810 C.3     1  UNL1        0.0934
     20 H          25.0992  -23.0398   -5.6298 H       1  UNL1        0.0846
     21 H          30.3046  -22.0935   -5.1172 H       1  UNL1        0.0626
     22 H          23.4862  -21.1986   -6.8870 H       1  UNL1        0.0527
     23 H          28.2217  -23.6469   -7.8962 H       1  UNL1        0.0846
     24 H          28.9354  -21.1291   -5.6178 H       1  UNL1        0.0626
     25 H          27.2804  -23.6180   -3.7538 H       1  UNL1        0.0626
@<TRIPOS>BOND
     1     5     1    1
     2    18     4    1
     3     5     2    1
     4    19     3    1
     5     5     6    1
     6     6     9   ar
     7     6    10   ar
     8     7    12    1
     9     7    19    1
    10     8    10   ar
    11     8    11   ar
    12     8    12    1
    13     9    11   ar
    14    13    15   ar
    15    13    16   ar
    16    14    16   ar
    17    14    17   ar
    18    15    17   ar
    19    16    19    1
    20    17    18    1
    21    12    24    1
    22    18    22    1
    23    12    21    1
    24    10    23    1
    25    19    25    1
    26    14    20    1
